* Q2SC4774 NPN BJT model
* Date: 2006/12/06
.MODEL Q2SC4774 NPN
+ IS=400.00E-18
+ BF=273.94
+ VAF=58.401
+ IKF=.11125
+ ISE=400.00E-18
+ NE=1.4958
+ BR=123.13
+ VAR=100
+ IKR=2.7340E-3
+ ISC=111.15E-15
+ NC=1.4605
+ NK=.52322
+ RB=30.550
+ RC=1.2708
+ CJE=2.4548E-12
+ MJE=.24183
+ CJC=1.3066E-12
+ MJC=.10044
+ TF=185.27E-12
+ XTF=21.386
+ VTF=12.035
+ ITF=5.6961
+ TR=3.5165E-9
+ XTB=1.5000
