* 2SK3557, rank 7.
.MODEL 2SK3557-7 NJF(
+ LEVEL=2
+ BETA=0.026
+ VTO=-1.04
+ LAMBDA=0.038
+ RD=5.6 RS=6.5 IS=0.558f CGS=7.62p CGD=7.62p M=0.33 PB=0.6
+ FC=0.5 N=1.016)
