.MODEL BAT42 D
+ IS = 8E-08
+ N = 1.012
+ BV = 45
+ IBV = 0.0001
+ RS = 0.8243
+ CJO = 2.515E-11
+ VJ = 0.4182
+ M = 0.4941
+ FC = 0.5
+ EG = 0.69
+ XTI = 2
