.SUBCKT bat54 1 2 3
D1 3 1 DI_BAT54S
D2 3 2 DI_BAT54S
.ENDS

.MODEL DI_BAT54S D  ( IS=34.9u RS=0.210 BV=30.0 IBV=2.00u
+ CJO=13.3p  M=0.333 N=2.28 TT=7.20n )
