.SUBCKT baw56 1 2 3
D1 3 1 BAW56
D2 3 2 BAW56
.ENDS
.SUBCKT baw56d 1 2 3 4 5 6
D1 6 1 BAW56
D2 6 2 BAW56
D4 3 4 BAW56
D5 3 5 BAW56
.ENDS

.MODEL BAW56 D (IS=68.6n RS=0.377 BV=75.0 IBV=1.00u
+ CJO=1.72p  M=0.333 N=2.34 TT=5.76n)
