.SUBCKT baw56d 1 2 3 4 5 6
D1 6 1 BAW56
D2 6 2 BAW56
D4 3 4 BAW56
D5 3 5 BAW56
.ENDS
.MODEL BAW56 D
+ IS = 1.705E-9
+ N = 1.71
+ BV = 87
+ IBV = 0.0003
+ RS = 1.022
+ CJO = 1.798E-12
+ VJ = 1.032
+ M = 0.2987
+ FC = 0.5
+ TT = 3.606E-9
