.subckt bias_pot gnd vdd set
Vbias 1 gnd DC 2.6
Rout 1 set 1k
Rload 1 vdd 1k
.ends
