.subckt bias_pot gnd vdd set
Vbias 1 gnd DC 1.8
Rout 1 set 100
.ends
