*SRC=BSS84;DI_BSS84;MOSFETs P;Enh;50.0V 0.130A 6.00ohms  Diodes Inc. MOSFET
.MODEL DI_BSS84  PMOS( LEVEL=1 VTO=-1.60 KP=4.87m  GAMMA=1.98
+ PHI=.75  LAMBDA=1.25m RD=0.840 RS=0.840
+ IS=65.0f  PB=0.800 MJ=0.460 CBD=46.6p
+ CBS=55.9p  CGSO=50.7n CGDO=42.2n CGBO=69.5n  )
*   -- Assumes default L=100U W=100U --

