* 2 MHz xtal.
.SUBCKT crystal2M 1 2
* Shunt capacitance.
Co 1 5 4p
* Series resistance.
R 1 3 500
* Motional capacitance
C1 3 4 20f
* Motional inductance
L 4 5 0.316853
* Stimulate for simulation.
* sin offset amplitude freq time-delay decay
* (decay is inverse-time).
V 5 2 SIN 0 1 2e6 0 10000
* No DC floating nodes...
Rl 1 2 1e9
.ENDS
