* 2 MHz xtal.
.SUBCKT crystal2M pin1 pin2
* Shunt capacitance.
Co pin1 pin2 4p
* Series resistance.
R pin1 v3 500
* Motional capacitance
Cm v3 v4 20f
* Motional inductance
L v4 pin2
.ENDS
