
* Seems to be based on the Nexperia model, plus VTO set to typical value.
.model NX3008 VDMOS(PCHAN
+ Rg=5
+ vto=-0.9
+ Rds=100Meg
+ Kp=4.673825e-001
+ Ksubthres=.1
+ Cgdmin=2p
+ Cgdmax=20p
+ Cgs=30p
+ is=1.4e-13
+ cjo=13p
+ Vds=25)
