.MODEL RB751S40 D
+ IS = 8.361E-09
+ N = 1.003
+ BV = 44
+ IBV = 8E-07
+ RS = 5.031
+ CJO = 3.8E-12
+ VJ = 0.1119
+ M = 0.2915
+ FC = 0.5
+ TT = 0
+ EG = 0.69
+ XTI = 2
