.MODEL rload R (R=2.7k)
.MODEL rstrong R (R=1k)
