.MODEL rload R (R=2.49k)
.MODEL rstrong R (R=820)
