.MODEL rload R (R=3.3k)
.MODEL rstrong R (R=1k)
