.MODEL SDM20U30 D (
+ IS=59.4n
+ RS=0.210 BV=30.0 IBV=150u CJO=19.9p  M=0.333 N=0.700 TT=7.20n)
